<routes>
    <vType accel="1.0" decel="4.5" id="standard_car" length="5.0" minGap="2.5" maxSpeed="25" sigma="0.5" speedFactor="norm(1,0)"/>

    <route id="W_N" edges="W2TL TL2N"/>
    <route id="W_E" edges="W2TL TL2E"/>
    <route id="W_S" edges="W2TL TL2S"/>
    <route id="N_W" edges="N2TL TL2W"/>
    <route id="N_E" edges="N2TL TL2E"/>
    <route id="N_S" edges="N2TL TL2S"/>
    <route id="E_W" edges="E2TL TL2W"/>
    <route id="E_N" edges="E2TL TL2N"/>
    <route id="E_S" edges="E2TL TL2S"/>
    <route id="S_W" edges="S2TL TL2W"/>
    <route id="S_N" edges="S2TL TL2N"/>
    <route id="S_E" edges="S2TL TL2E"/>
    <vehicle id="E_W_0" type="standard_car" route="E_W" depart="8.0" departLane="random" departSpeed="10.000000" />
    <vehicle id="S_N_1" type="standard_car" route="S_N" depart="122.0" departLane="random" departSpeed="10.000000" />
    <vehicle id="W_E_2" type="standard_car" route="W_E" depart="146.0" departLane="random" departSpeed="10.000000" />
    <vehicle id="W_E_3" type="standard_car" route="W_E" depart="149.0" departLane="random" departSpeed="10.000000" />
    <vehicle id="E_N_4" type="standard_car" route="E_N" depart="149.0" departLane="random" departSpeed="10.000000" />
    <vehicle id="N_S_5" type="standard_car" route="N_S" depart="169.0" departLane="random" departSpeed="10.000000" />
    <vehicle id="S_N_6" type="standard_car" route="S_N" depart="213.0" departLane="random" departSpeed="10.000000" />
    <vehicle id="S_N_7" type="standard_car" route="S_N" depart="214.0" departLane="random" departSpeed="10.000000" />
    <vehicle id="E_W_8" type="standard_car" route="E_W" depart="219.0" departLane="random" departSpeed="10.000000" />
    <vehicle id="N_E_9" type="standard_car" route="N_E" depart="222.0" departLane="random" departSpeed="10.000000" />
    <vehicle id="S_N_10" type="standard_car" route="S_N" depart="225.0" departLane="random" departSpeed="10.000000" />
    <vehicle id="N_S_11" type="standard_car" route="N_S" depart="227.0" departLane="random" departSpeed="10.000000" />
    <vehicle id="S_N_12" type="standard_car" route="S_N" depart="279.0" departLane="random" departSpeed="10.000000" />
    <vehicle id="N_S_13" type="standard_car" route="N_S" depart="305.0" departLane="random" departSpeed="10.000000" />
    <vehicle id="S_N_14" type="standard_car" route="S_N" depart="305.0" departLane="random" departSpeed="10.000000" />
    <vehicle id="N_S_15" type="standard_car" route="N_S" depart="322.0" departLane="random" departSpeed="10.000000" />
    <vehicle id="S_N_16" type="standard_car" route="S_N" depart="326.0" departLane="random" departSpeed="10.000000" />
    <vehicle id="W_E_17" type="standard_car" route="W_E" depart="342.0" departLane="random" departSpeed="10.000000" />
    <vehicle id="S_N_18" type="standard_car" route="S_N" depart="347.0" departLane="random" departSpeed="10.000000" />
    <vehicle id="E_W_19" type="standard_car" route="E_W" depart="356.0" departLane="random" departSpeed="10.000000" />
    <vehicle id="E_S_20" type="standard_car" route="E_S" depart="361.0" departLane="random" departSpeed="10.000000" />
    <vehicle id="S_N_21" type="standard_car" route="S_N" depart="364.0" departLane="random" departSpeed="10.000000" />
    <vehicle id="S_W_22" type="standard_car" route="S_W" depart="372.0" departLane="random" departSpeed="10.000000" />
    <vehicle id="E_W_23" type="standard_car" route="E_W" depart="372.0" departLane="random" departSpeed="10.000000" />
    <vehicle id="N_W_24" type="standard_car" route="N_W" depart="373.0" departLane="random" departSpeed="10.000000" />
    <vehicle id="S_N_25" type="standard_car" route="S_N" depart="379.0" departLane="random" departSpeed="10.000000" />
    <vehicle id="N_S_26" type="standard_car" route="N_S" depart="380.0" departLane="random" departSpeed="10.000000" />
    <vehicle id="W_E_27" type="standard_car" route="W_E" depart="394.0" departLane="random" departSpeed="10.000000" />
    <vehicle id="E_W_28" type="standard_car" route="E_W" depart="400.0" departLane="random" departSpeed="10.000000" />
    <vehicle id="E_W_29" type="standard_car" route="E_W" depart="403.0" departLane="random" departSpeed="10.000000" />
    <vehicle id="S_N_30" type="standard_car" route="S_N" depart="409.0" departLane="random" departSpeed="10.000000" />
    <vehicle id="E_W_31" type="standard_car" route="E_W" depart="412.0" departLane="random" departSpeed="10.000000" />
    <vehicle id="S_N_32" type="standard_car" route="S_N" depart="414.0" departLane="random" departSpeed="10.000000" />
    <vehicle id="W_N_33" type="standard_car" route="W_N" depart="427.0" departLane="random" departSpeed="10.000000" />
    <vehicle id="E_W_34" type="standard_car" route="E_W" depart="442.0" departLane="random" departSpeed="10.000000" />
    <vehicle id="E_W_35" type="standard_car" route="E_W" depart="443.0" departLane="random" departSpeed="10.000000" />
    <vehicle id="W_E_36" type="standard_car" route="W_E" depart="461.0" departLane="random" departSpeed="10.000000" />
    <vehicle id="E_W_37" type="standard_car" route="E_W" depart="469.0" departLane="random" departSpeed="10.000000" />
    <vehicle id="S_E_38" type="standard_car" route="S_E" depart="470.0" departLane="random" departSpeed="10.000000" />
    <vehicle id="E_W_39" type="standard_car" route="E_W" depart="472.0" departLane="random" departSpeed="10.000000" />
    <vehicle id="N_W_40" type="standard_car" route="N_W" depart="480.0" departLane="random" departSpeed="10.000000" />
    <vehicle id="E_W_41" type="standard_car" route="E_W" depart="502.0" departLane="random" departSpeed="10.000000" />
    <vehicle id="N_W_42" type="standard_car" route="N_W" depart="507.0" departLane="random" departSpeed="10.000000" />
    <vehicle id="S_N_43" type="standard_car" route="S_N" depart="509.0" departLane="random" departSpeed="10.000000" />
    <vehicle id="W_E_44" type="standard_car" route="W_E" depart="509.0" departLane="random" departSpeed="10.000000" />
    <vehicle id="E_W_45" type="standard_car" route="E_W" depart="510.0" departLane="random" departSpeed="10.000000" />
    <vehicle id="S_N_46" type="standard_car" route="S_N" depart="512.0" departLane="random" departSpeed="10.000000" />
    <vehicle id="E_W_47" type="standard_car" route="E_W" depart="515.0" departLane="random" departSpeed="10.000000" />
    <vehicle id="E_S_48" type="standard_car" route="E_S" depart="517.0" departLane="random" departSpeed="10.000000" />
    <vehicle id="W_E_49" type="standard_car" route="W_E" depart="531.0" departLane="random" departSpeed="10.000000" />
    <vehicle id="S_E_50" type="standard_car" route="S_E" depart="533.0" departLane="random" departSpeed="10.000000" />
    <vehicle id="E_N_51" type="standard_car" route="E_N" depart="541.0" departLane="random" departSpeed="10.000000" />
    <vehicle id="W_S_52" type="standard_car" route="W_S" depart="548.0" departLane="random" departSpeed="10.000000" />
    <vehicle id="N_S_53" type="standard_car" route="N_S" depart="551.0" departLane="random" departSpeed="10.000000" />
    <vehicle id="S_W_54" type="standard_car" route="S_W" depart="561.0" departLane="random" departSpeed="10.000000" />
    <vehicle id="S_N_55" type="standard_car" route="S_N" depart="564.0" departLane="random" departSpeed="10.000000" />
    <vehicle id="S_N_56" type="standard_car" route="S_N" depart="569.0" departLane="random" departSpeed="10.000000" />
    <vehicle id="N_S_57" type="standard_car" route="N_S" depart="575.0" departLane="random" departSpeed="10.000000" />
    <vehicle id="W_E_58" type="standard_car" route="W_E" depart="575.0" departLane="random" departSpeed="10.000000" />
    <vehicle id="N_S_59" type="standard_car" route="N_S" depart="581.0" departLane="random" departSpeed="10.000000" />
    <vehicle id="N_S_60" type="standard_car" route="N_S" depart="582.0" departLane="random" departSpeed="10.000000" />
    <vehicle id="N_S_61" type="standard_car" route="N_S" depart="585.0" departLane="random" departSpeed="10.000000" />
    <vehicle id="E_S_62" type="standard_car" route="E_S" depart="588.0" departLane="random" departSpeed="10.000000" />
    <vehicle id="E_W_63" type="standard_car" route="E_W" depart="588.0" departLane="random" departSpeed="10.000000" />
    <vehicle id="N_W_64" type="standard_car" route="N_W" depart="589.0" departLane="random" departSpeed="10.000000" />
    <vehicle id="W_E_65" type="standard_car" route="W_E" depart="595.0" departLane="random" departSpeed="10.000000" />
    <vehicle id="W_E_66" type="standard_car" route="W_E" depart="596.0" departLane="random" departSpeed="10.000000" />
    <vehicle id="N_E_67" type="standard_car" route="N_E" depart="597.0" departLane="random" departSpeed="10.000000" />
    <vehicle id="N_S_68" type="standard_car" route="N_S" depart="601.0" departLane="random" departSpeed="10.000000" />
    <vehicle id="E_W_69" type="standard_car" route="E_W" depart="602.0" departLane="random" departSpeed="10.000000" />
    <vehicle id="E_W_70" type="standard_car" route="E_W" depart="602.0" departLane="random" departSpeed="10.000000" />
    <vehicle id="N_W_71" type="standard_car" route="N_W" depart="602.0" departLane="random" departSpeed="10.000000" />
    <vehicle id="N_W_72" type="standard_car" route="N_W" depart="604.0" departLane="random" departSpeed="10.000000" />
    <vehicle id="S_N_73" type="standard_car" route="S_N" depart="606.0" departLane="random" departSpeed="10.000000" />
    <vehicle id="N_E_74" type="standard_car" route="N_E" depart="611.0" departLane="random" departSpeed="10.000000" />
    <vehicle id="E_W_75" type="standard_car" route="E_W" depart="614.0" departLane="random" departSpeed="10.000000" />
    <vehicle id="N_W_76" type="standard_car" route="N_W" depart="615.0" departLane="random" departSpeed="10.000000" />
    <vehicle id="E_W_77" type="standard_car" route="E_W" depart="619.0" departLane="random" departSpeed="10.000000" />
    <vehicle id="E_W_78" type="standard_car" route="E_W" depart="622.0" departLane="random" departSpeed="10.000000" />
    <vehicle id="N_S_79" type="standard_car" route="N_S" depart="626.0" departLane="random" departSpeed="10.000000" />
    <vehicle id="N_S_80" type="standard_car" route="N_S" depart="627.0" departLane="random" departSpeed="10.000000" />
    <vehicle id="W_E_81" type="standard_car" route="W_E" depart="631.0" departLane="random" departSpeed="10.000000" />
    <vehicle id="S_N_82" type="standard_car" route="S_N" depart="640.0" departLane="random" departSpeed="10.000000" />
    <vehicle id="N_W_83" type="standard_car" route="N_W" depart="642.0" departLane="random" departSpeed="10.000000" />
    <vehicle id="E_W_84" type="standard_car" route="E_W" depart="647.0" departLane="random" departSpeed="10.000000" />
    <vehicle id="W_N_85" type="standard_car" route="W_N" depart="656.0" departLane="random" departSpeed="10.000000" />
    <vehicle id="N_W_86" type="standard_car" route="N_W" depart="659.0" departLane="random" departSpeed="10.000000" />
    <vehicle id="N_W_87" type="standard_car" route="N_W" depart="663.0" departLane="random" departSpeed="10.000000" />
    <vehicle id="N_E_88" type="standard_car" route="N_E" depart="664.0" departLane="random" departSpeed="10.000000" />
    <vehicle id="E_W_89" type="standard_car" route="E_W" depart="666.0" departLane="random" departSpeed="10.000000" />
    <vehicle id="W_E_90" type="standard_car" route="W_E" depart="680.0" departLane="random" departSpeed="10.000000" />
    <vehicle id="W_N_91" type="standard_car" route="W_N" depart="681.0" departLane="random" departSpeed="10.000000" />
    <vehicle id="E_S_92" type="standard_car" route="E_S" depart="684.0" departLane="random" departSpeed="10.000000" />
    <vehicle id="E_W_93" type="standard_car" route="E_W" depart="686.0" departLane="random" departSpeed="10.000000" />
    <vehicle id="N_S_94" type="standard_car" route="N_S" depart="687.0" departLane="random" departSpeed="10.000000" />
    <vehicle id="S_N_95" type="standard_car" route="S_N" depart="695.0" departLane="random" departSpeed="10.000000" />
    <vehicle id="E_W_96" type="standard_car" route="E_W" depart="707.0" departLane="random" departSpeed="10.000000" />
    <vehicle id="S_N_97" type="standard_car" route="S_N" depart="710.0" departLane="random" departSpeed="10.000000" />
    <vehicle id="S_N_98" type="standard_car" route="S_N" depart="715.0" departLane="random" departSpeed="10.000000" />
    <vehicle id="W_E_99" type="standard_car" route="W_E" depart="715.0" departLane="random" departSpeed="10.000000" />
    <vehicle id="N_S_100" type="standard_car" route="N_S" depart="716.0" departLane="random" departSpeed="10.000000" />
    <vehicle id="S_N_101" type="standard_car" route="S_N" depart="717.0" departLane="random" departSpeed="10.000000" />
    <vehicle id="S_N_102" type="standard_car" route="S_N" depart="725.0" departLane="random" departSpeed="10.000000" />
    <vehicle id="N_S_103" type="standard_car" route="N_S" depart="729.0" departLane="random" departSpeed="10.000000" />
    <vehicle id="W_N_104" type="standard_car" route="W_N" depart="731.0" departLane="random" departSpeed="10.000000" />
    <vehicle id="N_E_105" type="standard_car" route="N_E" depart="731.0" departLane="random" departSpeed="10.000000" />
    <vehicle id="S_N_106" type="standard_car" route="S_N" depart="734.0" departLane="random" departSpeed="10.000000" />
    <vehicle id="W_E_107" type="standard_car" route="W_E" depart="735.0" departLane="random" departSpeed="10.000000" />
    <vehicle id="W_N_108" type="standard_car" route="W_N" depart="736.0" departLane="random" departSpeed="10.000000" />
    <vehicle id="E_W_109" type="standard_car" route="E_W" depart="737.0" departLane="random" departSpeed="10.000000" />
    <vehicle id="W_E_110" type="standard_car" route="W_E" depart="738.0" departLane="random" departSpeed="10.000000" />
    <vehicle id="N_S_111" type="standard_car" route="N_S" depart="747.0" departLane="random" departSpeed="10.000000" />
    <vehicle id="W_S_112" type="standard_car" route="W_S" depart="748.0" departLane="random" departSpeed="10.000000" />
    <vehicle id="N_S_113" type="standard_car" route="N_S" depart="750.0" departLane="random" departSpeed="10.000000" />
    <vehicle id="E_N_114" type="standard_car" route="E_N" depart="752.0" departLane="random" departSpeed="10.000000" />
    <vehicle id="N_W_115" type="standard_car" route="N_W" depart="757.0" departLane="random" departSpeed="10.000000" />
    <vehicle id="W_E_116" type="standard_car" route="W_E" depart="757.0" departLane="random" departSpeed="10.000000" />
    <vehicle id="S_E_117" type="standard_car" route="S_E" depart="760.0" departLane="random" departSpeed="10.000000" />
    <vehicle id="W_E_118" type="standard_car" route="W_E" depart="763.0" departLane="random" departSpeed="10.000000" />
    <vehicle id="E_N_119" type="standard_car" route="E_N" depart="765.0" departLane="random" departSpeed="10.000000" />
    <vehicle id="W_E_120" type="standard_car" route="W_E" depart="767.0" departLane="random" departSpeed="10.000000" />
    <vehicle id="N_S_121" type="standard_car" route="N_S" depart="767.0" departLane="random" departSpeed="10.000000" />
    <vehicle id="W_E_122" type="standard_car" route="W_E" depart="771.0" departLane="random" departSpeed="10.000000" />
    <vehicle id="E_W_123" type="standard_car" route="E_W" depart="772.0" departLane="random" departSpeed="10.000000" />
    <vehicle id="E_N_124" type="standard_car" route="E_N" depart="787.0" departLane="random" departSpeed="10.000000" />
    <vehicle id="W_E_125" type="standard_car" route="W_E" depart="791.0" departLane="random" departSpeed="10.000000" />
    <vehicle id="W_E_126" type="standard_car" route="W_E" depart="791.0" departLane="random" departSpeed="10.000000" />
    <vehicle id="S_W_127" type="standard_car" route="S_W" depart="791.0" departLane="random" departSpeed="10.000000" />
    <vehicle id="W_E_128" type="standard_car" route="W_E" depart="803.0" departLane="random" departSpeed="10.000000" />
    <vehicle id="W_N_129" type="standard_car" route="W_N" depart="815.0" departLane="random" departSpeed="10.000000" />
    <vehicle id="S_N_130" type="standard_car" route="S_N" depart="819.0" departLane="random" departSpeed="10.000000" />
    <vehicle id="W_E_131" type="standard_car" route="W_E" depart="820.0" departLane="random" departSpeed="10.000000" />
    <vehicle id="W_E_132" type="standard_car" route="W_E" depart="826.0" departLane="random" departSpeed="10.000000" />
    <vehicle id="W_E_133" type="standard_car" route="W_E" depart="829.0" departLane="random" departSpeed="10.000000" />
    <vehicle id="E_W_134" type="standard_car" route="E_W" depart="832.0" departLane="random" departSpeed="10.000000" />
    <vehicle id="N_S_135" type="standard_car" route="N_S" depart="834.0" departLane="random" departSpeed="10.000000" />
    <vehicle id="W_E_136" type="standard_car" route="W_E" depart="839.0" departLane="random" departSpeed="10.000000" />
    <vehicle id="E_W_137" type="standard_car" route="E_W" depart="846.0" departLane="random" departSpeed="10.000000" />
    <vehicle id="W_N_138" type="standard_car" route="W_N" depart="848.0" departLane="random" departSpeed="10.000000" />
    <vehicle id="N_E_139" type="standard_car" route="N_E" depart="849.0" departLane="random" departSpeed="10.000000" />
    <vehicle id="N_S_140" type="standard_car" route="N_S" depart="852.0" departLane="random" departSpeed="10.000000" />
    <vehicle id="S_N_141" type="standard_car" route="S_N" depart="859.0" departLane="random" departSpeed="10.000000" />
    <vehicle id="S_N_142" type="standard_car" route="S_N" depart="862.0" departLane="random" departSpeed="10.000000" />
    <vehicle id="S_E_143" type="standard_car" route="S_E" depart="863.0" departLane="random" departSpeed="10.000000" />
    <vehicle id="S_N_144" type="standard_car" route="S_N" depart="863.0" departLane="random" departSpeed="10.000000" />
    <vehicle id="S_N_145" type="standard_car" route="S_N" depart="865.0" departLane="random" departSpeed="10.000000" />
    <vehicle id="E_N_146" type="standard_car" route="E_N" depart="869.0" departLane="random" departSpeed="10.000000" />
    <vehicle id="W_E_147" type="standard_car" route="W_E" depart="878.0" departLane="random" departSpeed="10.000000" />
    <vehicle id="E_W_148" type="standard_car" route="E_W" depart="878.0" departLane="random" departSpeed="10.000000" />
    <vehicle id="W_E_149" type="standard_car" route="W_E" depart="879.0" departLane="random" departSpeed="10.000000" />
    <vehicle id="W_E_150" type="standard_car" route="W_E" depart="889.0" departLane="random" departSpeed="10.000000" />
    <vehicle id="E_W_151" type="standard_car" route="E_W" depart="893.0" departLane="random" departSpeed="10.000000" />
    <vehicle id="S_N_152" type="standard_car" route="S_N" depart="894.0" departLane="random" departSpeed="10.000000" />
    <vehicle id="S_N_153" type="standard_car" route="S_N" depart="901.0" departLane="random" departSpeed="10.000000" />
    <vehicle id="E_W_154" type="standard_car" route="E_W" depart="902.0" departLane="random" departSpeed="10.000000" />
    <vehicle id="N_S_155" type="standard_car" route="N_S" depart="902.0" departLane="random" departSpeed="10.000000" />
    <vehicle id="N_W_156" type="standard_car" route="N_W" depart="902.0" departLane="random" departSpeed="10.000000" />
    <vehicle id="N_W_157" type="standard_car" route="N_W" depart="904.0" departLane="random" departSpeed="10.000000" />
    <vehicle id="N_S_158" type="standard_car" route="N_S" depart="920.0" departLane="random" departSpeed="10.000000" />
    <vehicle id="N_S_159" type="standard_car" route="N_S" depart="922.0" departLane="random" departSpeed="10.000000" />
    <vehicle id="E_W_160" type="standard_car" route="E_W" depart="922.0" departLane="random" departSpeed="10.000000" />
    <vehicle id="W_S_161" type="standard_car" route="W_S" depart="924.0" departLane="random" departSpeed="10.000000" />
    <vehicle id="E_W_162" type="standard_car" route="E_W" depart="924.0" departLane="random" departSpeed="10.000000" />
    <vehicle id="S_W_163" type="standard_car" route="S_W" depart="927.0" departLane="random" departSpeed="10.000000" />
    <vehicle id="W_E_164" type="standard_car" route="W_E" depart="931.0" departLane="random" departSpeed="10.000000" />
    <vehicle id="S_N_165" type="standard_car" route="S_N" depart="931.0" departLane="random" departSpeed="10.000000" />
    <vehicle id="W_E_166" type="standard_car" route="W_E" depart="932.0" departLane="random" departSpeed="10.000000" />
    <vehicle id="S_E_167" type="standard_car" route="S_E" depart="932.0" departLane="random" departSpeed="10.000000" />
    <vehicle id="W_E_168" type="standard_car" route="W_E" depart="935.0" departLane="random" departSpeed="10.000000" />
    <vehicle id="S_E_169" type="standard_car" route="S_E" depart="936.0" departLane="random" departSpeed="10.000000" />
    <vehicle id="N_W_170" type="standard_car" route="N_W" depart="937.0" departLane="random" departSpeed="10.000000" />
    <vehicle id="N_E_171" type="standard_car" route="N_E" depart="941.0" departLane="random" departSpeed="10.000000" />
    <vehicle id="N_S_172" type="standard_car" route="N_S" depart="948.0" departLane="random" departSpeed="10.000000" />
    <vehicle id="W_E_173" type="standard_car" route="W_E" depart="951.0" departLane="random" departSpeed="10.000000" />
    <vehicle id="E_W_174" type="standard_car" route="E_W" depart="954.0" departLane="random" departSpeed="10.000000" />
    <vehicle id="W_E_175" type="standard_car" route="W_E" depart="957.0" departLane="random" departSpeed="10.000000" />
    <vehicle id="W_N_176" type="standard_car" route="W_N" depart="962.0" departLane="random" departSpeed="10.000000" />
    <vehicle id="E_W_177" type="standard_car" route="E_W" depart="963.0" departLane="random" departSpeed="10.000000" />
    <vehicle id="S_N_178" type="standard_car" route="S_N" depart="964.0" departLane="random" departSpeed="10.000000" />
    <vehicle id="E_W_179" type="standard_car" route="E_W" depart="967.0" departLane="random" departSpeed="10.000000" />
    <vehicle id="W_E_180" type="standard_car" route="W_E" depart="970.0" departLane="random" departSpeed="10.000000" />
    <vehicle id="W_E_181" type="standard_car" route="W_E" depart="971.0" departLane="random" departSpeed="10.000000" />
    <vehicle id="N_S_182" type="standard_car" route="N_S" depart="971.0" departLane="random" departSpeed="10.000000" />
    <vehicle id="S_N_183" type="standard_car" route="S_N" depart="971.0" departLane="random" departSpeed="10.000000" />
    <vehicle id="S_N_184" type="standard_car" route="S_N" depart="975.0" departLane="random" departSpeed="10.000000" />
    <vehicle id="S_N_185" type="standard_car" route="S_N" depart="978.0" departLane="random" departSpeed="10.000000" />
    <vehicle id="N_S_186" type="standard_car" route="N_S" depart="979.0" departLane="random" departSpeed="10.000000" />
    <vehicle id="W_E_187" type="standard_car" route="W_E" depart="983.0" departLane="random" departSpeed="10.000000" />
    <vehicle id="E_S_188" type="standard_car" route="E_S" depart="985.0" departLane="random" departSpeed="10.000000" />
    <vehicle id="E_W_189" type="standard_car" route="E_W" depart="987.0" departLane="random" departSpeed="10.000000" />
    <vehicle id="S_N_190" type="standard_car" route="S_N" depart="992.0" departLane="random" departSpeed="10.000000" />
    <vehicle id="W_E_191" type="standard_car" route="W_E" depart="992.0" departLane="random" departSpeed="10.000000" />
    <vehicle id="E_S_192" type="standard_car" route="E_S" depart="996.0" departLane="random" departSpeed="10.000000" />
    <vehicle id="N_S_193" type="standard_car" route="N_S" depart="997.0" departLane="random" departSpeed="10.000000" />
    <vehicle id="N_S_194" type="standard_car" route="N_S" depart="998.0" departLane="random" departSpeed="10.000000" />
    <vehicle id="N_S_195" type="standard_car" route="N_S" depart="998.0" departLane="random" departSpeed="10.000000" />
    <vehicle id="E_W_196" type="standard_car" route="E_W" depart="1008.0" departLane="random" departSpeed="10.000000" />
    <vehicle id="S_N_197" type="standard_car" route="S_N" depart="1010.0" departLane="random" departSpeed="10.000000" />
    <vehicle id="E_W_198" type="standard_car" route="E_W" depart="1017.0" departLane="random" departSpeed="10.000000" />
    <vehicle id="E_W_199" type="standard_car" route="E_W" depart="1017.0" departLane="random" departSpeed="10.000000" />
    <vehicle id="E_N_200" type="standard_car" route="E_N" depart="1025.0" departLane="random" departSpeed="10.000000" />
    <vehicle id="S_N_201" type="standard_car" route="S_N" depart="1025.0" departLane="random" departSpeed="10.000000" />
    <vehicle id="S_N_202" type="standard_car" route="S_N" depart="1028.0" departLane="random" departSpeed="10.000000" />
    <vehicle id="E_W_203" type="standard_car" route="E_W" depart="1040.0" departLane="random" departSpeed="10.000000" />
    <vehicle id="W_E_204" type="standard_car" route="W_E" depart="1044.0" departLane="random" departSpeed="10.000000" />
    <vehicle id="W_E_205" type="standard_car" route="W_E" depart="1044.0" departLane="random" departSpeed="10.000000" />
    <vehicle id="W_N_206" type="standard_car" route="W_N" depart="1044.0" departLane="random" departSpeed="10.000000" />
    <vehicle id="S_N_207" type="standard_car" route="S_N" depart="1049.0" departLane="random" departSpeed="10.000000" />
    <vehicle id="E_W_208" type="standard_car" route="E_W" depart="1053.0" departLane="random" departSpeed="10.000000" />
    <vehicle id="E_N_209" type="standard_car" route="E_N" depart="1053.0" departLane="random" departSpeed="10.000000" />
    <vehicle id="W_E_210" type="standard_car" route="W_E" depart="1058.0" departLane="random" departSpeed="10.000000" />
    <vehicle id="E_W_211" type="standard_car" route="E_W" depart="1058.0" departLane="random" departSpeed="10.000000" />
    <vehicle id="S_N_212" type="standard_car" route="S_N" depart="1058.0" departLane="random" departSpeed="10.000000" />
    <vehicle id="S_E_213" type="standard_car" route="S_E" depart="1060.0" departLane="random" departSpeed="10.000000" />
    <vehicle id="E_W_214" type="standard_car" route="E_W" depart="1060.0" departLane="random" departSpeed="10.000000" />
    <vehicle id="E_W_215" type="standard_car" route="E_W" depart="1061.0" departLane="random" departSpeed="10.000000" />
    <vehicle id="S_N_216" type="standard_car" route="S_N" depart="1061.0" departLane="random" departSpeed="10.000000" />
    <vehicle id="W_E_217" type="standard_car" route="W_E" depart="1066.0" departLane="random" departSpeed="10.000000" />
    <vehicle id="E_W_218" type="standard_car" route="E_W" depart="1069.0" departLane="random" departSpeed="10.000000" />
    <vehicle id="S_E_219" type="standard_car" route="S_E" depart="1069.0" departLane="random" departSpeed="10.000000" />
    <vehicle id="S_N_220" type="standard_car" route="S_N" depart="1070.0" departLane="random" departSpeed="10.000000" />
    <vehicle id="E_W_221" type="standard_car" route="E_W" depart="1072.0" departLane="random" departSpeed="10.000000" />
    <vehicle id="N_W_222" type="standard_car" route="N_W" depart="1072.0" departLane="random" departSpeed="10.000000" />
    <vehicle id="N_W_223" type="standard_car" route="N_W" depart="1073.0" departLane="random" departSpeed="10.000000" />
    <vehicle id="N_S_224" type="standard_car" route="N_S" depart="1083.0" departLane="random" departSpeed="10.000000" />
    <vehicle id="N_S_225" type="standard_car" route="N_S" depart="1088.0" departLane="random" departSpeed="10.000000" />
    <vehicle id="E_W_226" type="standard_car" route="E_W" depart="1093.0" departLane="random" departSpeed="10.000000" />
    <vehicle id="W_E_227" type="standard_car" route="W_E" depart="1095.0" departLane="random" departSpeed="10.000000" />
    <vehicle id="N_S_228" type="standard_car" route="N_S" depart="1096.0" departLane="random" departSpeed="10.000000" />
    <vehicle id="S_N_229" type="standard_car" route="S_N" depart="1097.0" departLane="random" departSpeed="10.000000" />
    <vehicle id="N_S_230" type="standard_car" route="N_S" depart="1097.0" departLane="random" departSpeed="10.000000" />
    <vehicle id="E_W_231" type="standard_car" route="E_W" depart="1099.0" departLane="random" departSpeed="10.000000" />
    <vehicle id="W_S_232" type="standard_car" route="W_S" depart="1101.0" departLane="random" departSpeed="10.000000" />
    <vehicle id="E_W_233" type="standard_car" route="E_W" depart="1102.0" departLane="random" departSpeed="10.000000" />
    <vehicle id="E_W_234" type="standard_car" route="E_W" depart="1111.0" departLane="random" departSpeed="10.000000" />
    <vehicle id="W_E_235" type="standard_car" route="W_E" depart="1112.0" departLane="random" departSpeed="10.000000" />
    <vehicle id="E_S_236" type="standard_car" route="E_S" depart="1115.0" departLane="random" departSpeed="10.000000" />
    <vehicle id="E_W_237" type="standard_car" route="E_W" depart="1116.0" departLane="random" departSpeed="10.000000" />
    <vehicle id="S_N_238" type="standard_car" route="S_N" depart="1120.0" departLane="random" departSpeed="10.000000" />
    <vehicle id="E_W_239" type="standard_car" route="E_W" depart="1122.0" departLane="random" departSpeed="10.000000" />
    <vehicle id="N_W_240" type="standard_car" route="N_W" depart="1124.0" departLane="random" departSpeed="10.000000" />
    <vehicle id="N_S_241" type="standard_car" route="N_S" depart="1126.0" departLane="random" departSpeed="10.000000" />
    <vehicle id="W_N_242" type="standard_car" route="W_N" depart="1133.0" departLane="random" departSpeed="10.000000" />
    <vehicle id="S_N_243" type="standard_car" route="S_N" depart="1135.0" departLane="random" departSpeed="10.000000" />
    <vehicle id="N_S_244" type="standard_car" route="N_S" depart="1143.0" departLane="random" departSpeed="10.000000" />