<routes>
    <vType accel="1.0" decel="4.5" id="standard_car" length="5.0" minGap="2.5" maxSpeed="25" sigma="0.5" speedFactor="norm(1,0)"/>

    <route id="W_N" edges="W2TL TL2N"/>
    <route id="W_E" edges="W2TL TL2E"/>
    <route id="W_S" edges="W2TL TL2S"/>
    <route id="N_W" edges="N2TL TL2W"/>
    <route id="N_E" edges="N2TL TL2E"/>
    <route id="N_S" edges="N2TL TL2S"/>
    <route id="E_W" edges="E2TL TL2W"/>
    <route id="E_N" edges="E2TL TL2N"/>
    <route id="E_S" edges="E2TL TL2S"/>
    <route id="S_W" edges="S2TL TL2W"/>
    <route id="S_N" edges="S2TL TL2N"/>
    <route id="S_E" edges="S2TL TL2E"/>
    <vehicle id="N_S_0" type="standard_car" route="N_S" depart="34.0" departLane="random" departSpeed="10.000000" />
    <vehicle id="W_S_1" type="standard_car" route="W_S" depart="52.0" departLane="random" departSpeed="10.000000" />
    <vehicle id="E_W_2" type="standard_car" route="E_W" depart="98.0" departLane="random" departSpeed="10.000000" />
    <vehicle id="S_W_3" type="standard_car" route="S_W" depart="109.0" departLane="random" departSpeed="10.000000" />
    <vehicle id="S_N_4" type="standard_car" route="S_N" depart="110.0" departLane="random" departSpeed="10.000000" />
    <vehicle id="W_E_5" type="standard_car" route="W_E" depart="136.0" departLane="random" departSpeed="10.000000" />
    <vehicle id="S_N_6" type="standard_car" route="S_N" depart="140.0" departLane="random" departSpeed="10.000000" />
    <vehicle id="N_W_7" type="standard_car" route="N_W" depart="143.0" departLane="random" departSpeed="10.000000" />
    <vehicle id="W_E_8" type="standard_car" route="W_E" depart="154.0" departLane="random" departSpeed="10.000000" />
    <vehicle id="N_S_9" type="standard_car" route="N_S" depart="154.0" departLane="random" departSpeed="10.000000" />
    <vehicle id="W_E_10" type="standard_car" route="W_E" depart="168.0" departLane="random" departSpeed="10.000000" />
    <vehicle id="E_W_11" type="standard_car" route="E_W" depart="171.0" departLane="random" departSpeed="10.000000" />
    <vehicle id="E_W_12" type="standard_car" route="E_W" depart="177.0" departLane="random" departSpeed="10.000000" />
    <vehicle id="N_E_13" type="standard_car" route="N_E" depart="178.0" departLane="random" departSpeed="10.000000" />
    <vehicle id="S_N_14" type="standard_car" route="S_N" depart="189.0" departLane="random" departSpeed="10.000000" />
    <vehicle id="W_E_15" type="standard_car" route="W_E" depart="191.0" departLane="random" departSpeed="10.000000" />
    <vehicle id="S_E_16" type="standard_car" route="S_E" depart="196.0" departLane="random" departSpeed="10.000000" />
    <vehicle id="S_N_17" type="standard_car" route="S_N" depart="201.0" departLane="random" departSpeed="10.000000" />
    <vehicle id="W_E_18" type="standard_car" route="W_E" depart="235.0" departLane="random" departSpeed="10.000000" />
    <vehicle id="S_N_19" type="standard_car" route="S_N" depart="235.0" departLane="random" departSpeed="10.000000" />
    <vehicle id="S_N_20" type="standard_car" route="S_N" depart="235.0" departLane="random" departSpeed="10.000000" />
    <vehicle id="S_N_21" type="standard_car" route="S_N" depart="252.0" departLane="random" departSpeed="10.000000" />
    <vehicle id="N_S_22" type="standard_car" route="N_S" depart="259.0" departLane="random" departSpeed="10.000000" />
    <vehicle id="N_S_23" type="standard_car" route="N_S" depart="261.0" departLane="random" departSpeed="10.000000" />
    <vehicle id="N_E_24" type="standard_car" route="N_E" depart="263.0" departLane="random" departSpeed="10.000000" />
    <vehicle id="W_E_25" type="standard_car" route="W_E" depart="274.0" departLane="random" departSpeed="10.000000" />
    <vehicle id="W_E_26" type="standard_car" route="W_E" depart="286.0" departLane="random" departSpeed="10.000000" />
    <vehicle id="E_S_27" type="standard_car" route="E_S" depart="291.0" departLane="random" departSpeed="10.000000" />
    <vehicle id="N_S_28" type="standard_car" route="N_S" depart="298.0" departLane="random" departSpeed="10.000000" />
    <vehicle id="W_E_29" type="standard_car" route="W_E" depart="299.0" departLane="random" departSpeed="10.000000" />
    <vehicle id="N_W_30" type="standard_car" route="N_W" depart="304.0" departLane="random" departSpeed="10.000000" />
    <vehicle id="W_E_31" type="standard_car" route="W_E" depart="307.0" departLane="random" departSpeed="10.000000" />
    <vehicle id="W_E_32" type="standard_car" route="W_E" depart="308.0" departLane="random" departSpeed="10.000000" />
    <vehicle id="S_N_33" type="standard_car" route="S_N" depart="311.0" departLane="random" departSpeed="10.000000" />
    <vehicle id="N_S_34" type="standard_car" route="N_S" depart="314.0" departLane="random" departSpeed="10.000000" />
    <vehicle id="E_S_35" type="standard_car" route="E_S" depart="318.0" departLane="random" departSpeed="10.000000" />
    <vehicle id="W_S_36" type="standard_car" route="W_S" depart="322.0" departLane="random" departSpeed="10.000000" />
    <vehicle id="S_E_37" type="standard_car" route="S_E" depart="327.0" departLane="random" departSpeed="10.000000" />
    <vehicle id="E_W_38" type="standard_car" route="E_W" depart="330.0" departLane="random" departSpeed="10.000000" />
    <vehicle id="W_E_39" type="standard_car" route="W_E" depart="333.0" departLane="random" departSpeed="10.000000" />
    <vehicle id="S_N_40" type="standard_car" route="S_N" depart="333.0" departLane="random" departSpeed="10.000000" />
    <vehicle id="N_S_41" type="standard_car" route="N_S" depart="333.0" departLane="random" departSpeed="10.000000" />
    <vehicle id="E_W_42" type="standard_car" route="E_W" depart="335.0" departLane="random" departSpeed="10.000000" />
    <vehicle id="S_E_43" type="standard_car" route="S_E" depart="338.0" departLane="random" departSpeed="10.000000" />
    <vehicle id="W_E_44" type="standard_car" route="W_E" depart="340.0" departLane="random" departSpeed="10.000000" />
    <vehicle id="W_E_45" type="standard_car" route="W_E" depart="355.0" departLane="random" departSpeed="10.000000" />
    <vehicle id="W_E_46" type="standard_car" route="W_E" depart="362.0" departLane="random" departSpeed="10.000000" />
    <vehicle id="W_E_47" type="standard_car" route="W_E" depart="364.0" departLane="random" departSpeed="10.000000" />
    <vehicle id="N_S_48" type="standard_car" route="N_S" depart="371.0" departLane="random" departSpeed="10.000000" />
    <vehicle id="E_W_49" type="standard_car" route="E_W" depart="373.0" departLane="random" departSpeed="10.000000" />
    <vehicle id="S_N_50" type="standard_car" route="S_N" depart="377.0" departLane="random" departSpeed="10.000000" />
    <vehicle id="N_S_51" type="standard_car" route="N_S" depart="380.0" departLane="random" departSpeed="10.000000" />
    <vehicle id="N_E_52" type="standard_car" route="N_E" depart="382.0" departLane="random" departSpeed="10.000000" />
    <vehicle id="W_N_53" type="standard_car" route="W_N" depart="383.0" departLane="random" departSpeed="10.000000" />
    <vehicle id="E_W_54" type="standard_car" route="E_W" depart="392.0" departLane="random" departSpeed="10.000000" />
    <vehicle id="N_S_55" type="standard_car" route="N_S" depart="392.0" departLane="random" departSpeed="10.000000" />
    <vehicle id="S_N_56" type="standard_car" route="S_N" depart="396.0" departLane="random" departSpeed="10.000000" />
    <vehicle id="W_E_57" type="standard_car" route="W_E" depart="398.0" departLane="random" departSpeed="10.000000" />
    <vehicle id="N_S_58" type="standard_car" route="N_S" depart="400.0" departLane="random" departSpeed="10.000000" />
    <vehicle id="W_E_59" type="standard_car" route="W_E" depart="400.0" departLane="random" departSpeed="10.000000" />
    <vehicle id="E_N_60" type="standard_car" route="E_N" depart="403.0" departLane="random" departSpeed="10.000000" />
    <vehicle id="N_W_61" type="standard_car" route="N_W" depart="407.0" departLane="random" departSpeed="10.000000" />
    <vehicle id="E_S_62" type="standard_car" route="E_S" depart="409.0" departLane="random" departSpeed="10.000000" />
    <vehicle id="E_W_63" type="standard_car" route="E_W" depart="412.0" departLane="random" departSpeed="10.000000" />
    <vehicle id="S_W_64" type="standard_car" route="S_W" depart="422.0" departLane="random" departSpeed="10.000000" />
    <vehicle id="S_N_65" type="standard_car" route="S_N" depart="423.0" departLane="random" departSpeed="10.000000" />
    <vehicle id="N_S_66" type="standard_car" route="N_S" depart="423.0" departLane="random" departSpeed="10.000000" />
    <vehicle id="W_E_67" type="standard_car" route="W_E" depart="425.0" departLane="random" departSpeed="10.000000" />
    <vehicle id="W_E_68" type="standard_car" route="W_E" depart="431.0" departLane="random" departSpeed="10.000000" />
    <vehicle id="N_S_69" type="standard_car" route="N_S" depart="433.0" departLane="random" departSpeed="10.000000" />
    <vehicle id="E_W_70" type="standard_car" route="E_W" depart="436.0" departLane="random" departSpeed="10.000000" />
    <vehicle id="E_W_71" type="standard_car" route="E_W" depart="437.0" departLane="random" departSpeed="10.000000" />
    <vehicle id="S_N_72" type="standard_car" route="S_N" depart="439.0" departLane="random" departSpeed="10.000000" />
    <vehicle id="W_S_73" type="standard_car" route="W_S" depart="440.0" departLane="random" departSpeed="10.000000" />
    <vehicle id="W_N_74" type="standard_car" route="W_N" depart="443.0" departLane="random" departSpeed="10.000000" />
    <vehicle id="W_S_75" type="standard_car" route="W_S" depart="445.0" departLane="random" departSpeed="10.000000" />
    <vehicle id="E_W_76" type="standard_car" route="E_W" depart="446.0" departLane="random" departSpeed="10.000000" />
    <vehicle id="S_N_77" type="standard_car" route="S_N" depart="457.0" departLane="random" departSpeed="10.000000" />
    <vehicle id="E_W_78" type="standard_car" route="E_W" depart="461.0" departLane="random" departSpeed="10.000000" />
    <vehicle id="W_E_79" type="standard_car" route="W_E" depart="461.0" departLane="random" departSpeed="10.000000" />
    <vehicle id="N_S_80" type="standard_car" route="N_S" depart="464.0" departLane="random" departSpeed="10.000000" />
    <vehicle id="E_W_81" type="standard_car" route="E_W" depart="468.0" departLane="random" departSpeed="10.000000" />
    <vehicle id="N_S_82" type="standard_car" route="N_S" depart="469.0" departLane="random" departSpeed="10.000000" />
    <vehicle id="N_E_83" type="standard_car" route="N_E" depart="470.0" departLane="random" departSpeed="10.000000" />
    <vehicle id="E_S_84" type="standard_car" route="E_S" depart="472.0" departLane="random" departSpeed="10.000000" />
    <vehicle id="E_W_85" type="standard_car" route="E_W" depart="479.0" departLane="random" departSpeed="10.000000" />
    <vehicle id="E_W_86" type="standard_car" route="E_W" depart="484.0" departLane="random" departSpeed="10.000000" />
    <vehicle id="S_W_87" type="standard_car" route="S_W" depart="489.0" departLane="random" departSpeed="10.000000" />
    <vehicle id="W_E_88" type="standard_car" route="W_E" depart="491.0" departLane="random" departSpeed="10.000000" />
    <vehicle id="E_W_89" type="standard_car" route="E_W" depart="496.0" departLane="random" departSpeed="10.000000" />
    <vehicle id="W_E_90" type="standard_car" route="W_E" depart="501.0" departLane="random" departSpeed="10.000000" />
    <vehicle id="N_S_91" type="standard_car" route="N_S" depart="502.0" departLane="random" departSpeed="10.000000" />
    <vehicle id="S_W_92" type="standard_car" route="S_W" depart="510.0" departLane="random" departSpeed="10.000000" />
    <vehicle id="S_N_93" type="standard_car" route="S_N" depart="511.0" departLane="random" departSpeed="10.000000" />
    <vehicle id="N_W_94" type="standard_car" route="N_W" depart="524.0" departLane="random" departSpeed="10.000000" />
    <vehicle id="S_N_95" type="standard_car" route="S_N" depart="527.0" departLane="random" departSpeed="10.000000" />
    <vehicle id="E_W_96" type="standard_car" route="E_W" depart="527.0" departLane="random" departSpeed="10.000000" />
    <vehicle id="N_S_97" type="standard_car" route="N_S" depart="527.0" departLane="random" departSpeed="10.000000" />
    <vehicle id="S_N_98" type="standard_car" route="S_N" depart="530.0" departLane="random" departSpeed="10.000000" />
    <vehicle id="N_S_99" type="standard_car" route="N_S" depart="539.0" departLane="random" departSpeed="10.000000" />
    <vehicle id="S_N_100" type="standard_car" route="S_N" depart="554.0" departLane="random" departSpeed="10.000000" />
    <vehicle id="N_S_101" type="standard_car" route="N_S" depart="561.0" departLane="random" departSpeed="10.000000" />
    <vehicle id="W_E_102" type="standard_car" route="W_E" depart="562.0" departLane="random" departSpeed="10.000000" />
    <vehicle id="N_S_103" type="standard_car" route="N_S" depart="571.0" departLane="random" departSpeed="10.000000" />
    <vehicle id="S_N_104" type="standard_car" route="S_N" depart="572.0" departLane="random" departSpeed="10.000000" />
    <vehicle id="N_E_105" type="standard_car" route="N_E" depart="573.0" departLane="random" departSpeed="10.000000" />
    <vehicle id="W_S_106" type="standard_car" route="W_S" depart="574.0" departLane="random" departSpeed="10.000000" />
    <vehicle id="W_E_107" type="standard_car" route="W_E" depart="575.0" departLane="random" departSpeed="10.000000" />
    <vehicle id="E_W_108" type="standard_car" route="E_W" depart="578.0" departLane="random" departSpeed="10.000000" />
    <vehicle id="W_N_109" type="standard_car" route="W_N" depart="579.0" departLane="random" departSpeed="10.000000" />
    <vehicle id="W_E_110" type="standard_car" route="W_E" depart="585.0" departLane="random" departSpeed="10.000000" />
    <vehicle id="W_E_111" type="standard_car" route="W_E" depart="585.0" departLane="random" departSpeed="10.000000" />
    <vehicle id="N_S_112" type="standard_car" route="N_S" depart="585.0" departLane="random" departSpeed="10.000000" />
    <vehicle id="E_W_113" type="standard_car" route="E_W" depart="586.0" departLane="random" departSpeed="10.000000" />
    <vehicle id="N_E_114" type="standard_car" route="N_E" depart="589.0" departLane="random" departSpeed="10.000000" />
    <vehicle id="S_N_115" type="standard_car" route="S_N" depart="590.0" departLane="random" departSpeed="10.000000" />
    <vehicle id="N_S_116" type="standard_car" route="N_S" depart="602.0" departLane="random" departSpeed="10.000000" />
    <vehicle id="S_W_117" type="standard_car" route="S_W" depart="603.0" departLane="random" departSpeed="10.000000" />
    <vehicle id="W_E_118" type="standard_car" route="W_E" depart="606.0" departLane="random" departSpeed="10.000000" />
    <vehicle id="N_S_119" type="standard_car" route="N_S" depart="607.0" departLane="random" departSpeed="10.000000" />
    <vehicle id="S_N_120" type="standard_car" route="S_N" depart="608.0" departLane="random" departSpeed="10.000000" />
    <vehicle id="S_N_121" type="standard_car" route="S_N" depart="609.0" departLane="random" departSpeed="10.000000" />
    <vehicle id="E_W_122" type="standard_car" route="E_W" depart="610.0" departLane="random" departSpeed="10.000000" />
    <vehicle id="E_W_123" type="standard_car" route="E_W" depart="613.0" departLane="random" departSpeed="10.000000" />
    <vehicle id="N_S_124" type="standard_car" route="N_S" depart="615.0" departLane="random" departSpeed="10.000000" />
    <vehicle id="S_N_125" type="standard_car" route="S_N" depart="617.0" departLane="random" departSpeed="10.000000" />
    <vehicle id="S_N_126" type="standard_car" route="S_N" depart="624.0" departLane="random" departSpeed="10.000000" />
    <vehicle id="N_S_127" type="standard_car" route="N_S" depart="626.0" departLane="random" departSpeed="10.000000" />
    <vehicle id="E_S_128" type="standard_car" route="E_S" depart="626.0" departLane="random" departSpeed="10.000000" />
    <vehicle id="N_S_129" type="standard_car" route="N_S" depart="629.0" departLane="random" departSpeed="10.000000" />
    <vehicle id="E_W_130" type="standard_car" route="E_W" depart="629.0" departLane="random" departSpeed="10.000000" />
    <vehicle id="W_E_131" type="standard_car" route="W_E" depart="630.0" departLane="random" departSpeed="10.000000" />
    <vehicle id="S_N_132" type="standard_car" route="S_N" depart="639.0" departLane="random" departSpeed="10.000000" />
    <vehicle id="W_E_133" type="standard_car" route="W_E" depart="640.0" departLane="random" departSpeed="10.000000" />
    <vehicle id="S_N_134" type="standard_car" route="S_N" depart="642.0" departLane="random" departSpeed="10.000000" />
    <vehicle id="W_E_135" type="standard_car" route="W_E" depart="642.0" departLane="random" departSpeed="10.000000" />
    <vehicle id="N_S_136" type="standard_car" route="N_S" depart="643.0" departLane="random" departSpeed="10.000000" />
    <vehicle id="W_N_137" type="standard_car" route="W_N" depart="646.0" departLane="random" departSpeed="10.000000" />
    <vehicle id="S_N_138" type="standard_car" route="S_N" depart="653.0" departLane="random" departSpeed="10.000000" />
    <vehicle id="W_E_139" type="standard_car" route="W_E" depart="653.0" departLane="random" departSpeed="10.000000" />
    <vehicle id="W_E_140" type="standard_car" route="W_E" depart="656.0" departLane="random" departSpeed="10.000000" />
    <vehicle id="W_E_141" type="standard_car" route="W_E" depart="656.0" departLane="random" departSpeed="10.000000" />
    <vehicle id="N_S_142" type="standard_car" route="N_S" depart="657.0" departLane="random" departSpeed="10.000000" />
    <vehicle id="S_W_143" type="standard_car" route="S_W" depart="665.0" departLane="random" departSpeed="10.000000" />
    <vehicle id="E_W_144" type="standard_car" route="E_W" depart="671.0" departLane="random" departSpeed="10.000000" />
    <vehicle id="N_S_145" type="standard_car" route="N_S" depart="677.0" departLane="random" departSpeed="10.000000" />
    <vehicle id="S_N_146" type="standard_car" route="S_N" depart="681.0" departLane="random" departSpeed="10.000000" />
    <vehicle id="N_E_147" type="standard_car" route="N_E" depart="683.0" departLane="random" departSpeed="10.000000" />
    <vehicle id="E_W_148" type="standard_car" route="E_W" depart="685.0" departLane="random" departSpeed="10.000000" />
    <vehicle id="N_S_149" type="standard_car" route="N_S" depart="685.0" departLane="random" departSpeed="10.000000" />
    <vehicle id="E_W_150" type="standard_car" route="E_W" depart="686.0" departLane="random" departSpeed="10.000000" />
    <vehicle id="W_E_151" type="standard_car" route="W_E" depart="687.0" departLane="random" departSpeed="10.000000" />
    <vehicle id="E_W_152" type="standard_car" route="E_W" depart="688.0" departLane="random" departSpeed="10.000000" />
    <vehicle id="E_W_153" type="standard_car" route="E_W" depart="688.0" departLane="random" departSpeed="10.000000" />
    <vehicle id="E_W_154" type="standard_car" route="E_W" depart="698.0" departLane="random" departSpeed="10.000000" />
    <vehicle id="E_W_155" type="standard_car" route="E_W" depart="700.0" departLane="random" departSpeed="10.000000" />
    <vehicle id="E_S_156" type="standard_car" route="E_S" depart="700.0" departLane="random" departSpeed="10.000000" />
    <vehicle id="W_E_157" type="standard_car" route="W_E" depart="704.0" departLane="random" departSpeed="10.000000" />
    <vehicle id="N_S_158" type="standard_car" route="N_S" depart="708.0" departLane="random" departSpeed="10.000000" />
    <vehicle id="E_W_159" type="standard_car" route="E_W" depart="710.0" departLane="random" departSpeed="10.000000" />
    <vehicle id="E_S_160" type="standard_car" route="E_S" depart="714.0" departLane="random" departSpeed="10.000000" />
    <vehicle id="N_S_161" type="standard_car" route="N_S" depart="714.0" departLane="random" departSpeed="10.000000" />
    <vehicle id="E_S_162" type="standard_car" route="E_S" depart="720.0" departLane="random" departSpeed="10.000000" />
    <vehicle id="E_W_163" type="standard_car" route="E_W" depart="721.0" departLane="random" departSpeed="10.000000" />
    <vehicle id="S_N_164" type="standard_car" route="S_N" depart="725.0" departLane="random" departSpeed="10.000000" />
    <vehicle id="W_N_165" type="standard_car" route="W_N" depart="727.0" departLane="random" departSpeed="10.000000" />
    <vehicle id="W_E_166" type="standard_car" route="W_E" depart="727.0" departLane="random" departSpeed="10.000000" />
    <vehicle id="N_S_167" type="standard_car" route="N_S" depart="728.0" departLane="random" departSpeed="10.000000" />
    <vehicle id="S_W_168" type="standard_car" route="S_W" depart="733.0" departLane="random" departSpeed="10.000000" />
    <vehicle id="N_S_169" type="standard_car" route="N_S" depart="736.0" departLane="random" departSpeed="10.000000" />
    <vehicle id="S_E_170" type="standard_car" route="S_E" depart="738.0" departLane="random" departSpeed="10.000000" />
    <vehicle id="N_S_171" type="standard_car" route="N_S" depart="738.0" departLane="random" departSpeed="10.000000" />
    <vehicle id="S_N_172" type="standard_car" route="S_N" depart="740.0" departLane="random" departSpeed="10.000000" />
    <vehicle id="N_S_173" type="standard_car" route="N_S" depart="747.0" departLane="random" departSpeed="10.000000" />
    <vehicle id="E_W_174" type="standard_car" route="E_W" depart="753.0" departLane="random" departSpeed="10.000000" />
    <vehicle id="E_W_175" type="standard_car" route="E_W" depart="754.0" departLane="random" departSpeed="10.000000" />
    <vehicle id="N_S_176" type="standard_car" route="N_S" depart="756.0" departLane="random" departSpeed="10.000000" />
    <vehicle id="S_N_177" type="standard_car" route="S_N" depart="757.0" departLane="random" departSpeed="10.000000" />
    <vehicle id="N_W_178" type="standard_car" route="N_W" depart="759.0" departLane="random" departSpeed="10.000000" />
    <vehicle id="E_W_179" type="standard_car" route="E_W" depart="759.0" departLane="random" departSpeed="10.000000" />
    <vehicle id="E_W_180" type="standard_car" route="E_W" depart="759.0" departLane="random" departSpeed="10.000000" />
    <vehicle id="E_W_181" type="standard_car" route="E_W" depart="759.0" departLane="random" departSpeed="10.000000" />
    <vehicle id="S_N_182" type="standard_car" route="S_N" depart="763.0" departLane="random" departSpeed="10.000000" />
    <vehicle id="E_W_183" type="standard_car" route="E_W" depart="763.0" departLane="random" departSpeed="10.000000" />
    <vehicle id="S_N_184" type="standard_car" route="S_N" depart="765.0" departLane="random" departSpeed="10.000000" />
    <vehicle id="N_E_185" type="standard_car" route="N_E" depart="765.0" departLane="random" departSpeed="10.000000" />
    <vehicle id="E_W_186" type="standard_car" route="E_W" depart="766.0" departLane="random" departSpeed="10.000000" />
    <vehicle id="E_W_187" type="standard_car" route="E_W" depart="767.0" departLane="random" departSpeed="10.000000" />
    <vehicle id="E_S_188" type="standard_car" route="E_S" depart="768.0" departLane="random" departSpeed="10.000000" />
    <vehicle id="N_E_189" type="standard_car" route="N_E" depart="769.0" departLane="random" departSpeed="10.000000" />
    <vehicle id="E_S_190" type="standard_car" route="E_S" depart="772.0" departLane="random" departSpeed="10.000000" />
    <vehicle id="W_E_191" type="standard_car" route="W_E" depart="772.0" departLane="random" departSpeed="10.000000" />
    <vehicle id="N_S_192" type="standard_car" route="N_S" depart="772.0" departLane="random" departSpeed="10.000000" />
    <vehicle id="W_E_193" type="standard_car" route="W_E" depart="773.0" departLane="random" departSpeed="10.000000" />
    <vehicle id="E_N_194" type="standard_car" route="E_N" depart="775.0" departLane="random" departSpeed="10.000000" />
    <vehicle id="S_E_195" type="standard_car" route="S_E" depart="779.0" departLane="random" departSpeed="10.000000" />
    <vehicle id="N_S_196" type="standard_car" route="N_S" depart="781.0" departLane="random" departSpeed="10.000000" />
    <vehicle id="E_N_197" type="standard_car" route="E_N" depart="784.0" departLane="random" departSpeed="10.000000" />
    <vehicle id="N_E_198" type="standard_car" route="N_E" depart="786.0" departLane="random" departSpeed="10.000000" />
    <vehicle id="W_E_199" type="standard_car" route="W_E" depart="787.0" departLane="random" departSpeed="10.000000" />
    <vehicle id="S_N_200" type="standard_car" route="S_N" depart="789.0" departLane="random" departSpeed="10.000000" />
    <vehicle id="S_N_201" type="standard_car" route="S_N" depart="793.0" departLane="random" departSpeed="10.000000" />
    <vehicle id="E_S_202" type="standard_car" route="E_S" depart="796.0" departLane="random" departSpeed="10.000000" />
    <vehicle id="N_S_203" type="standard_car" route="N_S" depart="796.0" departLane="random" departSpeed="10.000000" />
    <vehicle id="E_N_204" type="standard_car" route="E_N" depart="797.0" departLane="random" departSpeed="10.000000" />
    <vehicle id="E_N_205" type="standard_car" route="E_N" depart="799.0" departLane="random" departSpeed="10.000000" />
    <vehicle id="E_W_206" type="standard_car" route="E_W" depart="801.0" departLane="random" departSpeed="10.000000" />
    <vehicle id="E_N_207" type="standard_car" route="E_N" depart="802.0" departLane="random" departSpeed="10.000000" />
    <vehicle id="E_W_208" type="standard_car" route="E_W" depart="803.0" departLane="random" departSpeed="10.000000" />
    <vehicle id="S_W_209" type="standard_car" route="S_W" depart="811.0" departLane="random" departSpeed="10.000000" />
    <vehicle id="W_E_210" type="standard_car" route="W_E" depart="812.0" departLane="random" departSpeed="10.000000" />
    <vehicle id="E_W_211" type="standard_car" route="E_W" depart="814.0" departLane="random" departSpeed="10.000000" />
    <vehicle id="N_S_212" type="standard_car" route="N_S" depart="817.0" departLane="random" departSpeed="10.000000" />
    <vehicle id="S_N_213" type="standard_car" route="S_N" depart="818.0" departLane="random" departSpeed="10.000000" />
    <vehicle id="S_E_214" type="standard_car" route="S_E" depart="819.0" departLane="random" departSpeed="10.000000" />
    <vehicle id="E_N_215" type="standard_car" route="E_N" depart="825.0" departLane="random" departSpeed="10.000000" />
    <vehicle id="E_W_216" type="standard_car" route="E_W" depart="826.0" departLane="random" departSpeed="10.000000" />
    <vehicle id="W_E_217" type="standard_car" route="W_E" depart="826.0" departLane="random" departSpeed="10.000000" />
    <vehicle id="E_W_218" type="standard_car" route="E_W" depart="827.0" departLane="random" departSpeed="10.000000" />
    <vehicle id="S_N_219" type="standard_car" route="S_N" depart="831.0" departLane="random" departSpeed="10.000000" />
    <vehicle id="S_W_220" type="standard_car" route="S_W" depart="832.0" departLane="random" departSpeed="10.000000" />
    <vehicle id="S_E_221" type="standard_car" route="S_E" depart="832.0" departLane="random" departSpeed="10.000000" />
    <vehicle id="E_W_222" type="standard_car" route="E_W" depart="835.0" departLane="random" departSpeed="10.000000" />
    <vehicle id="W_E_223" type="standard_car" route="W_E" depart="836.0" departLane="random" departSpeed="10.000000" />
    <vehicle id="S_E_224" type="standard_car" route="S_E" depart="839.0" departLane="random" departSpeed="10.000000" />
    <vehicle id="E_S_225" type="standard_car" route="E_S" depart="841.0" departLane="random" departSpeed="10.000000" />
    <vehicle id="W_E_226" type="standard_car" route="W_E" depart="843.0" departLane="random" departSpeed="10.000000" />
    <vehicle id="S_N_227" type="standard_car" route="S_N" depart="843.0" departLane="random" departSpeed="10.000000" />
    <vehicle id="S_N_228" type="standard_car" route="S_N" depart="845.0" departLane="random" departSpeed="10.000000" />
    <vehicle id="W_S_229" type="standard_car" route="W_S" depart="846.0" departLane="random" departSpeed="10.000000" />
    <vehicle id="E_W_230" type="standard_car" route="E_W" depart="848.0" departLane="random" departSpeed="10.000000" />
    <vehicle id="S_N_231" type="standard_car" route="S_N" depart="863.0" departLane="random" departSpeed="10.000000" />
    <vehicle id="W_E_232" type="standard_car" route="W_E" depart="864.0" departLane="random" departSpeed="10.000000" />
    <vehicle id="S_N_233" type="standard_car" route="S_N" depart="873.0" departLane="random" departSpeed="10.000000" />
    <vehicle id="N_S_234" type="standard_car" route="N_S" depart="875.0" departLane="random" departSpeed="10.000000" />
    <vehicle id="E_N_235" type="standard_car" route="E_N" depart="877.0" departLane="random" departSpeed="10.000000" />
    <vehicle id="W_E_236" type="standard_car" route="W_E" depart="878.0" departLane="random" departSpeed="10.000000" />
    <vehicle id="E_S_237" type="standard_car" route="E_S" depart="878.0" departLane="random" departSpeed="10.000000" />
    <vehicle id="E_S_238" type="standard_car" route="E_S" depart="879.0" departLane="random" departSpeed="10.000000" />
    <vehicle id="E_W_239" type="standard_car" route="E_W" depart="880.0" departLane="random" departSpeed="10.000000" />
    <vehicle id="W_S_240" type="standard_car" route="W_S" depart="880.0" departLane="random" departSpeed="10.000000" />
    <vehicle id="E_W_241" type="standard_car" route="E_W" depart="884.0" departLane="random" departSpeed="10.000000" />
    <vehicle id="N_S_242" type="standard_car" route="N_S" depart="884.0" departLane="random" departSpeed="10.000000" />
    <vehicle id="E_W_243" type="standard_car" route="E_W" depart="887.0" departLane="random" departSpeed="10.000000" />
    <vehicle id="E_W_244" type="standard_car" route="E_W" depart="892.0" departLane="random" departSpeed="10.000000" />